Version 4
SHEET 1 2324 1196
WIRE 1152 352 1152 288
WIRE 1280 400 1200 400
WIRE 384 512 352 512
WIRE 496 512 464 512
WIRE 528 512 496 512
WIRE 624 512 608 512
WIRE -160 528 -192 528
WIRE -144 528 -160 528
WIRE 352 544 352 512
WIRE -192 560 -192 528
WIRE 1392 560 1392 528
WIRE 496 576 496 512
WIRE 576 576 576 560
WIRE 576 576 496 576
WIRE 1152 576 1152 432
WIRE 1280 576 1280 400
WIRE 1360 576 1280 576
WIRE 1568 592 1424 592
WIRE 1584 592 1568 592
WIRE 944 608 832 608
WIRE 1088 608 944 608
WIRE 1360 608 1088 608
WIRE 1392 624 1392 608
WIRE 832 640 832 608
WIRE 944 640 944 608
WIRE 1392 640 1392 624
WIRE -192 688 -192 640
WIRE 560 704 560 688
WIRE 1088 704 1088 608
WIRE 496 720 496 576
WIRE 528 720 496 720
WIRE 624 736 624 512
WIRE 624 736 592 736
WIRE 688 736 624 736
WIRE 832 736 832 704
WIRE 832 736 752 736
WIRE 848 736 832 736
WIRE 944 736 944 704
WIRE 944 736 928 736
WIRE 1040 736 944 736
WIRE 208 752 176 752
WIRE 304 752 288 752
WIRE 352 752 304 752
WIRE 464 752 432 752
WIRE 528 752 464 752
WIRE 304 768 304 752
WIRE 464 768 464 752
WIRE 832 768 832 736
WIRE 944 768 944 736
WIRE -192 800 -192 768
WIRE 560 816 560 768
WIRE 624 832 624 736
WIRE 464 864 464 832
WIRE 832 864 832 832
WIRE 880 864 832 864
WIRE 944 864 944 832
WIRE 944 864 880 864
WIRE 1040 864 1040 736
WIRE 1040 864 944 864
WIRE 1088 864 1088 768
WIRE 1088 864 1040 864
WIRE -240 880 -240 864
WIRE 880 896 880 864
WIRE 304 944 304 832
WIRE 624 944 624 912
WIRE 624 944 304 944
WIRE -240 992 -240 960
WIRE -176 992 -240 992
WIRE -176 1008 -176 992
WIRE 304 1040 304 944
FLAG -160 528 IN+
FLAG -240 864 V+
FLAG -176 1008 0
FLAG -192 800 0
FLAG 176 752 IN+
FLAG 352 544 0
FLAG 560 688 V+
FLAG 464 864 0
FLAG 304 1040 0
FLAG 880 896 0
FLAG 1392 640 0
FLAG 1568 592 OUT
FLAG 1280 576 V_COM
FLAG 1088 608 V_DC
FLAG 1152 576 0
FLAG 1392 528 V+
FLAG 1152 288 V+
FLAG 560 816 0
SYMBOL voltage -192 544 R0
WINDOW 3 -206 100 Left 2
WINDOW 123 -126 8 Left 2
WINDOW 39 0 0 Left 0
SYMATTR Value SINE(0 0 50)
SYMATTR Value2 AC 150mV
SYMATTR InstName V1
SYMBOL voltage -240 864 R0
WINDOW 3 -55 99 Left 2
WINDOW 123 -126 8 Left 2
WINDOW 39 0 0 Left 0
SYMATTR Value 5
SYMATTR InstName V2
SYMBOL res 304 736 R90
WINDOW 0 0 56 VBottom 2
WINDOW 3 32 56 VTop 2
SYMATTR InstName R1
SYMATTR Value 8.6k
SYMBOL res 448 736 R90
WINDOW 0 0 56 VBottom 2
WINDOW 3 32 56 VTop 2
SYMATTR InstName R2
SYMATTR Value 8.6k
SYMBOL cap 288 768 R0
SYMATTR InstName C1
SYMATTR Value 47n
SYMBOL cap 448 768 R0
SYMATTR InstName C2
SYMATTR Value 33n
SYMBOL res 480 496 R90
WINDOW 0 0 56 VBottom 2
WINDOW 3 32 56 VTop 2
SYMATTR InstName R4
SYMATTR Value 2.2k
SYMBOL res 608 816 R0
SYMATTR InstName R5
SYMATTR Value 100k
SYMBOL cap 752 720 R90
WINDOW 0 0 32 VBottom 2
WINDOW 3 32 32 VTop 2
SYMATTR InstName C3
SYMATTR Value 100n
SYMBOL diode 848 832 R180
WINDOW 0 24 64 Left 2
WINDOW 3 24 0 Left 2
SYMATTR InstName D1
SYMATTR Value 1N914
SYMBOL diode 960 832 R180
WINDOW 0 24 64 Left 2
WINDOW 3 24 0 Left 2
SYMATTR InstName D2
SYMATTR Value 1N914
SYMBOL diode 960 704 R180
WINDOW 0 24 64 Left 2
WINDOW 3 24 0 Left 2
SYMATTR InstName D3
SYMATTR Value 1N914
SYMBOL diode 848 704 R180
WINDOW 0 24 64 Left 2
WINDOW 3 24 0 Left 2
SYMATTR InstName D4
SYMATTR Value 1N914
SYMBOL cap 1072 704 R0
SYMATTR InstName C4
SYMATTR Value 100n
SYMBOL OpAmps\\LT1677 1392 528 R0
SYMATTR InstName U2
SYMBOL OpAmps\\LT1677 560 672 R0
SYMATTR InstName U1
SYMBOL voltage -192 672 R0
WINDOW 3 -206 100 Left 2
WINDOW 123 -126 8 Left 2
WINDOW 39 0 0 Left 0
SYMATTR Value SINE(0 0 500)
SYMATTR Value2 AC 150mV
SYMATTR InstName V4
SYMBOL pot 1136 336 R0
WINDOW 3 36 11 Left 2
SYMATTR InstName U3
SYMATTR Value Rtot=250K wiper=.40
SYMBOL pot 512 496 M90
WINDOW 0 -24 28 VLeft 2
WINDOW 3 -42 -5 VRight 2
SYMATTR InstName U4
SYMATTR Value Rtot=500K wiper=.8
TEXT -496 808 Left 2 !;.ac dec 30 1 10k
TEXT -496 832 Left 2 !.tran 500m
TEXT -496 856 Left 2 !.include pot.sub
