Version 4
SHEET 1 2324 1196
WIRE 928 416 928 384
WIRE 928 416 768 416
WIRE -224 464 -256 464
WIRE -208 464 -224 464
WIRE 768 480 768 416
WIRE 928 480 928 416
WIRE 1696 480 1696 448
WIRE 1824 496 1824 448
WIRE -256 512 -256 464
WIRE 384 512 352 512
WIRE 496 512 464 512
WIRE 512 512 496 512
WIRE 624 512 592 512
WIRE 1008 528 976 528
WIRE 1104 528 1088 528
WIRE 1184 528 1104 528
WIRE 352 544 352 512
WIRE 1104 560 1104 528
WIRE 496 576 496 512
WIRE 560 576 560 560
WIRE 560 576 496 576
WIRE 1696 576 1696 560
WIRE -256 624 -256 592
WIRE 768 640 768 544
WIRE 928 640 928 560
WIRE 928 640 768 640
WIRE 1104 640 1104 624
WIRE 1104 640 928 640
WIRE 928 656 928 640
WIRE 1696 656 1696 640
WIRE 1824 656 1824 576
WIRE 1824 656 1696 656
WIRE 1696 672 1696 656
WIRE -224 688 -256 688
WIRE -208 688 -224 688
WIRE 1296 688 1296 656
WIRE -256 704 -256 688
WIRE 560 704 560 688
WIRE 1184 704 1184 528
WIRE 1232 704 1184 704
WIRE 1264 704 1232 704
WIRE 496 720 496 576
WIRE 528 720 496 720
WIRE 1440 720 1328 720
WIRE 1504 720 1440 720
WIRE 1632 720 1584 720
WIRE 624 736 624 512
WIRE 624 736 592 736
WIRE 720 736 624 736
WIRE 896 736 784 736
WIRE 992 736 896 736
WIRE 1056 736 992 736
WIRE 1232 736 1136 736
WIRE 1264 736 1232 736
WIRE 208 752 176 752
WIRE 304 752 288 752
WIRE 352 752 304 752
WIRE 464 752 432 752
WIRE 528 752 464 752
WIRE 464 768 464 752
WIRE 304 816 304 752
WIRE 560 816 560 768
WIRE 624 816 624 736
WIRE 1296 816 1296 752
WIRE -256 832 -256 784
WIRE 896 832 896 736
WIRE 992 832 992 736
WIRE 1696 832 1696 768
WIRE 464 864 464 832
WIRE 304 944 304 880
WIRE 624 944 624 896
WIRE 624 944 304 944
WIRE 304 976 304 944
WIRE 896 976 896 912
WIRE 992 976 992 896
FLAG -224 464 IN+
FLAG -224 688 V+
FLAG -256 832 0
FLAG -256 624 0
FLAG 176 752 IN+
FLAG 352 544 0
FLAG 560 688 V+
FLAG 464 864 0
FLAG 304 976 0
FLAG 992 976 0
FLAG 1296 816 0
FLAG 1440 720 OUT
FLAG 1232 704 V_COM-
FLAG 928 656 0
FLAG 1296 656 V+
FLAG 928 384 V+
FLAG 560 816 0
FLAG 896 976 0
FLAG 1232 736 V_COM+
FLAG 1696 832 0
FLAG 1696 448 V+
FLAG 1824 448 V+
SYMBOL voltage -256 688 R0
WINDOW 3 -55 99 Left 2
WINDOW 123 -126 8 Left 2
WINDOW 39 0 0 Left 0
SYMATTR Value 3.6
SYMATTR InstName V2
SYMBOL res 304 736 R90
WINDOW 0 0 56 VBottom 2
WINDOW 3 32 56 VTop 2
SYMATTR InstName R1
SYMATTR Value 8.2k
SYMBOL res 448 736 R90
WINDOW 0 0 56 VBottom 2
WINDOW 3 32 56 VTop 2
SYMATTR InstName R2
SYMATTR Value 8.2k
SYMBOL cap 288 816 R0
SYMATTR InstName C1
SYMATTR Value 47n
SYMBOL cap 448 768 R0
SYMATTR InstName C2
SYMATTR Value 33n
SYMBOL res 480 496 R90
WINDOW 0 0 56 VBottom 2
WINDOW 3 32 56 VTop 2
SYMATTR InstName R3
SYMATTR Value 2.2k
SYMBOL res 608 800 R0
SYMATTR InstName R4
SYMATTR Value 100k
SYMBOL diode 720 752 R270
WINDOW 0 32 32 VTop 2
WINDOW 3 0 32 VBottom 2
SYMATTR InstName D1
SYMATTR Value 1N914
SYMBOL cap 976 832 R0
SYMATTR InstName C3
SYMATTR Value 220n
SYMBOL OpAmps\\LT1677 1296 656 R0
SYMATTR InstName U2
SYMBOL OpAmps\\LT1677 560 672 R0
SYMATTR InstName U1
SYMBOL res 1104 512 R90
WINDOW 0 0 56 VBottom 2
WINDOW 3 32 56 VTop 2
SYMATTR InstName R7
SYMATTR Value 10k
SYMBOL res 1152 720 R90
WINDOW 0 0 56 VBottom 2
WINDOW 3 32 56 VTop 2
SYMATTR InstName R6
SYMATTR Value 10k
SYMBOL res 880 816 R0
SYMATTR InstName R5
SYMATTR Value 1Meg
SYMBOL cap 1088 560 R0
WINDOW 3 24 53 Left 2
SYMATTR Value 100n
SYMATTR InstName C5
SYMBOL voltage -256 496 R0
WINDOW 123 24 124 Left 2
WINDOW 39 0 0 Left 0
SYMATTR Value2 AC 15m
SYMATTR InstName V1
SYMATTR Value SINE(0 15m 100 0 0 0 50)
SYMBOL pot 912 464 R0
WINDOW 3 38 4 Left 2
SYMATTR Value Rtot=100K wiper=.5
SYMATTR InstName P2
SYMBOL pot 496 496 M90
WINDOW 0 -6 97 VRight 2
WINDOW 3 -29 225 VLeft 2
SYMATTR InstName P1
SYMATTR Value Rtot=500K wiper=.75
SYMBOL polcap 752 480 R0
SYMATTR InstName C4
SYMATTR Value 1µ
SYMBOL LED 1680 576 R0
SYMATTR InstName D2
SYMATTR Value NSPW500BS
SYMATTR Description Diode
SYMATTR Type diode
SYMBOL npn 1632 672 R0
SYMATTR InstName Q1
SYMATTR Value 2N2222
SYMBOL res 1808 480 R0
SYMATTR InstName R10
SYMATTR Value 50
SYMBOL res 1600 704 R90
WINDOW 0 0 56 VBottom 2
WINDOW 3 32 56 VTop 2
SYMATTR InstName R8
SYMATTR Value 2k
SYMBOL res 1680 464 R0
SYMATTR InstName R9
SYMATTR Value 10
TEXT -312 888 Left 2 !.tran 0 1 1m 1m
TEXT -312 912 Left 2 !.include pot.sub
TEXT -312 936 Left 2 !;.ac dec 10 1 100k
