Version 4
SHEET 1 1256 716
WIRE -432 -304 -528 -304
WIRE -528 -256 -528 -304
WIRE -528 -80 -528 -176
WIRE 336 16 192 16
WIRE 192 32 192 16
WIRE 336 64 336 16
WIRE -304 112 -304 96
WIRE -304 144 -304 112
WIRE 192 144 192 112
WIRE 288 144 192 144
WIRE 192 192 192 144
WIRE -304 240 -304 224
WIRE -64 240 -304 240
WIRE -32 240 -64 240
WIRE 128 240 48 240
WIRE -304 256 -304 240
WIRE -64 256 -64 240
WIRE 336 272 336 160
WIRE -304 368 -304 320
WIRE -64 368 -64 336
WIRE 192 400 192 288
WIRE 256 400 192 400
WIRE 336 400 336 352
WIRE 336 400 256 400
WIRE -640 432 -640 400
WIRE 256 448 256 400
WIRE -640 544 -640 512
FLAG -432 -304 V
FLAG -640 544 0
FLAG -640 400 TRIG
FLAG -64 368 0
FLAG -304 368 0
FLAG -304 112 TRIG
FLAG 192 16 V
FLAG -528 -80 0
FLAG 256 448 0
SYMBOL voltage -528 -272 R0
WINDOW 0 24 96 Left 2
WINDOW 3 24 16 Left 2
WINDOW 123 0 0 Left 0
WINDOW 39 0 0 Left 0
SYMATTR InstName V2
SYMATTR Value 12
SYMBOL voltage -640 416 R0
WINDOW 123 0 0 Left 0
WINDOW 39 0 0 Left 0
SYMATTR InstName V3
SYMATTR Value PULSE(0 12 50m 1n 1n 1 120)
SYMBOL npn 128 192 R0
SYMATTR InstName Q1
SYMATTR Value 2N4401
SYMBOL res 64 224 R90
WINDOW 0 0 56 VBottom 2
WINDOW 3 32 56 VTop 2
SYMATTR InstName R1
SYMATTR Value 1Meg
SYMBOL res -48 352 R180
WINDOW 0 36 76 Left 2
WINDOW 3 36 40 Left 2
SYMATTR InstName R2
SYMATTR Value 100k
SYMBOL cap -320 256 R0
SYMATTR InstName C1
SYMATTR Value 500µ
SYMBOL res -288 240 R180
WINDOW 0 36 76 Left 2
WINDOW 3 36 40 Left 2
SYMATTR InstName R3
SYMATTR Value 100
SYMBOL pmos 288 64 R0
SYMATTR InstName M1
SYMATTR Value IRF7406
SYMBOL res 208 128 R180
WINDOW 0 36 76 Left 2
WINDOW 3 36 40 Left 2
SYMATTR InstName R4
SYMATTR Value 100k
SYMBOL current 336 272 R0
WINDOW 123 0 0 Left 0
WINDOW 39 0 0 Left 0
SYMATTR InstName I1
SYMATTR Value 10m
TEXT -704 632 Left 2 !.tran 600
